/*--------------------------------*- C++ -*----------------------------------*\
| =========                 |                                                 |
| \\      /  F ield         | OpenFOAM: The Open Source CFD Toolbox           |
|  \\    /   O peration     | Version:  2.3.0                                 |
|   \\  /    A nd           | Web:      www.OpenFOAM.org                      |
|    \\/     M anipulation  |                                                 |
\*---------------------------------------------------------------------------*/
FoamFile
{
    version     2.0;
    format      ascii;
    class       dictionary;
    location    "constant";
    object      phaseProperties;
}
// * * * * * * * * * * * * * * * * * * * * * * * * * * * * * * * * * * * * * //

phases (dust air);

/*
dust
{
    type granular;
    thermoType
    {
        transport   const;
        thermo      eConst;
        equationOfState idealGas;
    }
    equationOfState
    {
        gamma                         1.4;            // Heat capactiy ratio
        //a 				10000;
    }
    specie
    {
        molWeight       28.97;
    }
    transport
    {
        mu              0;
        Pr              1;
    }
    thermodynamics
    {
        type        eConst;
        Cv          718;
        Hf          0;
    }

    residualRho     1e-6;
    residualAlpha   1e-6;
}
*/
dust
{
    phaseType        granular;

    diameterModel constant;
    constantDiameterCoeffs
    {
        d           50e-6;
    }

    alphaMax    0.6;
    alphaMinFriction 0.4;

    type basic;
    thermoType
    {
        transport   constIso;
        thermo      eConst;
        equationOfState rhoConst;
    }
    specie
    {
        molWeight 100.0;
    }
    equationOfState
    {
		rho0 700;
    }
    transport
    {
        kappa 0.36;
    }
    thermodynamics
    {
        Cv          987;           // Heat capacity
        Hf          0.0;
    }

    residualAlpha 1e-6;
    residualRho   1e-6;

    kineticTheoryCoeffs
    {
        e           0.9;
    }
}

air
{
	phaseType fluid;
    type basic;
	diameterModel constant;
	constantDiameterCoeffs
	{
		d  		1e-9;
	}

    thermoType
    {
        transport   const;
        thermo      eConst;
        equationOfState idealGas;
    }
    equationOfState
    {
        gamma           1.4;            // Heat capactiy ratio
    }
    specie
    {
        molWeight       28.97;
    }
    transport
    {
        mu              1.81e-5;
        Pr              1;
    }
    thermodynamics
    {
        type        eConst;
        Cv          718;
        Hf          0;
    }

    residualRho     1e-6;
    residualAlpha   1e-6;
}


blending
{
    default
    {
        type none;
        continuousPhase air;
    }
}

interfacialPressure
(
    (air and dust)
    {
        type single;
        phase air;
    }
);

interfacialVelocity
(
    (air and dust)
    {
        type single;
        phase dust;
    }
);

aspectRatio
(
);

solveDragODE off;
dragODECoeffs
{
    solver seulex;
    relTol 1e-3;

}
drag
(
    (dust in air)
    {
        type GidaspowErgunWenYu;
        residualRe 1e-3;
        swarmCorrection
        {
            type none;
        }
    }
);

virtualMass
(
);

heatTransfer
(
    (dust in air)
    {
        type RanzMarshall;
        NuModel Gunn;
    }
);

lift
(
);

wallLubrication
(
);

turbulentDispersion
(
);

kineticTheory
{
    residualAlpha       1e-6;

    radialModel SinclairJackson;
    viscosityModel none;
    conductivityModel Syamlal;
    granularPressureModel Lun;
    frictionalStressModel JohnsonJackson;

    JohnsonJacksonCoeffs
    {
        alphaMinFriction        0.5;
        alphaMinFrictionByAlphap 0.9;
        Fr                      0.05;
        eta                     2;
        p                       5;
        phi                     28.5;
        alphaDeltaMin           1e-6;
    }
}
// ************************************************************************* //
